test/mvp_try1/packs/der_50.dss
! IEEE 13 × DER 50%
! Total PV = 50% of 3,466 kW ≈ 1,733 kW, split equally across 3 buses (≈ 578 kW each)

Redirect ieee13_der_base.dss

New Generator.PV_671 phases=3 bus1=671.1.2.3 kv=4.16 conn=Delta kW=578 pf=1.0 Model=1
New Generator.PV_675 phases=3 bus1=675.1.2.3 kv=4.16 conn=Wye   kW=578 pf=1.0 Model=1
New Generator.PV_634 phases=3 bus1=634.1.2.3 kv=0.48 conn=Wye   kW=578 pf=1.0 Model=1

Set Voltagebases=[115, 4.16, .48]
Calcv
Solve BaseFrequency=60
